<?xml version="1.0" encoding="UTF-8"?>

<!-- generated on 2026-02-09T22:54:02.107014+05:30 by Eclipse SUMO netconvert 1.25.0
<netconvertConfiguration xmlns:xsi="http://www.w3.org/2001/XMLSchema-instance" xsi:noNamespaceSchemaLocation="http://sumo.dlr.de/xsd/netconvertConfiguration.xsd">

    <input>
        <node-files value="network.nod.xml"/>
        <edge-files value="network.edg.xml"/>
    </input>

    <output>
        <output-file value="network.net.xml"/>
    </output>

    <junctions>
        <no-turnarounds value="true"/>
    </junctions>

</netconvertConfiguration>
-->

<net version="1.20" junctionCornerDetail="5" limitTurnSpeed="5.50" xmlns:xsi="http://www.w3.org/2001/XMLSchema-instance" xsi:noNamespaceSchemaLocation="http://sumo.dlr.de/xsd/net_file.xsd">

    <location netOffset="0.00,0.00" convBoundary="0.00,0.00,1500.00,1500.00" origBoundary="0.00,0.00,1500.00,1500.00" projParameter="!"/>

    <edge id=":n00_0" function="internal">
        <lane id=":n00_0_0" index="0" speed="8.96" length="18.06" shape="-4.80,6.40 -4.10,1.50 -2.00,-2.00 1.50,-4.10 6.40,-4.80"/>
        <lane id=":n00_0_1" index="1" speed="7.66" length="12.90" shape="-1.60,6.40 -1.10,2.90 0.40,0.40 2.90,-1.10 6.40,-1.60"/>
    </edge>
    <edge id=":n00_2" function="internal">
        <lane id=":n00_2_0" index="0" speed="3.90" length="2.58" shape="6.40,4.80 5.70,4.90 5.20,5.20 4.90,5.70 4.80,6.40"/>
        <lane id=":n00_2_1" index="1" speed="6.08" length="7.74" shape="6.40,1.60 4.30,1.90 2.80,2.80 1.90,4.30 1.60,6.40"/>
    </edge>
    <edge id=":n01_0" function="internal">
        <lane id=":n01_0_0" index="0" speed="6.51" length="9.03" shape="495.20,10.40 494.85,7.95 493.80,6.20 492.05,5.15 489.60,4.80"/>
        <lane id=":n01_0_1" index="1" speed="8.00" length="14.19" shape="498.40,10.40 497.85,6.55 496.20,3.80 493.45,2.15 489.60,1.60"/>
    </edge>
    <edge id=":n01_2" function="internal">
        <lane id=":n01_2_0" index="0" speed="9.26" length="19.35" shape="498.40,10.40 499.15,5.15 501.40,1.40 505.15,-0.85 510.40,-1.60"/>
    </edge>
    <edge id=":n01_3" function="internal">
        <lane id=":n01_3_0" index="0" speed="6.51" length="9.03" shape="510.40,4.80 507.95,5.15 506.20,6.20 505.15,7.95 504.80,10.40"/>
    </edge>
    <edge id=":n01_4" function="internal">
        <lane id=":n01_4_0" index="0" speed="16.67" length="20.80" shape="510.40,4.80 489.60,4.80"/>
        <lane id=":n01_4_1" index="1" speed="16.67" length="20.80" shape="510.40,1.60 489.60,1.60"/>
    </edge>
    <edge id=":n01_6" function="internal">
        <lane id=":n01_6_0" index="0" speed="16.67" length="20.80" shape="489.60,-4.80 510.40,-4.80"/>
        <lane id=":n01_6_1" index="1" speed="16.67" length="20.80" shape="489.60,-1.60 510.40,-1.60"/>
    </edge>
    <edge id=":n01_8" function="internal">
        <lane id=":n01_8_0" index="0" speed="9.26" length="5.01" shape="489.60,-1.60 494.56,-0.89"/>
    </edge>
    <edge id=":n01_9" function="internal">
        <lane id=":n01_9_0" index="0" speed="9.26" length="14.34" shape="494.56,-0.89 494.85,-0.85 498.60,1.40 500.85,5.15 501.60,10.40"/>
    </edge>
    <edge id=":n02_0" function="internal">
        <lane id=":n02_0_0" index="0" speed="6.51" length="9.03" shape="995.20,10.40 994.85,7.95 993.80,6.20 992.05,5.15 989.60,4.80"/>
        <lane id=":n02_0_1" index="1" speed="8.00" length="14.19" shape="998.40,10.40 997.85,6.55 996.20,3.80 993.45,2.15 989.60,1.60"/>
    </edge>
    <edge id=":n02_2" function="internal">
        <lane id=":n02_2_0" index="0" speed="9.26" length="19.35" shape="998.40,10.40 999.15,5.15 1001.40,1.40 1005.15,-0.85 1010.40,-1.60"/>
    </edge>
    <edge id=":n02_3" function="internal">
        <lane id=":n02_3_0" index="0" speed="6.51" length="9.03" shape="1010.40,4.80 1007.95,5.15 1006.20,6.20 1005.15,7.95 1004.80,10.40"/>
    </edge>
    <edge id=":n02_4" function="internal">
        <lane id=":n02_4_0" index="0" speed="16.67" length="20.80" shape="1010.40,4.80 989.60,4.80"/>
        <lane id=":n02_4_1" index="1" speed="16.67" length="20.80" shape="1010.40,1.60 989.60,1.60"/>
    </edge>
    <edge id=":n02_6" function="internal">
        <lane id=":n02_6_0" index="0" speed="16.67" length="20.80" shape="989.60,-4.80 1010.40,-4.80"/>
        <lane id=":n02_6_1" index="1" speed="16.67" length="20.80" shape="989.60,-1.60 1010.40,-1.60"/>
    </edge>
    <edge id=":n02_8" function="internal">
        <lane id=":n02_8_0" index="0" speed="9.26" length="5.01" shape="989.60,-1.60 994.56,-0.89"/>
    </edge>
    <edge id=":n02_9" function="internal">
        <lane id=":n02_9_0" index="0" speed="9.26" length="14.34" shape="994.56,-0.89 994.85,-0.85 998.60,1.40 1000.85,5.15 1001.60,10.40"/>
    </edge>
    <edge id=":n03_0" function="internal">
        <lane id=":n03_0_0" index="0" speed="3.90" length="2.58" shape="1495.20,6.40 1495.10,5.70 1494.80,5.20 1494.30,4.90 1493.60,4.80"/>
        <lane id=":n03_0_1" index="1" speed="6.08" length="7.74" shape="1498.40,6.40 1498.10,4.30 1497.20,2.80 1495.70,1.90 1493.60,1.60"/>
    </edge>
    <edge id=":n03_2" function="internal">
        <lane id=":n03_2_0" index="0" speed="8.96" length="18.06" shape="1493.60,-4.80 1498.50,-4.10 1502.00,-2.00 1504.10,1.50 1504.80,6.40"/>
        <lane id=":n03_2_1" index="1" speed="7.66" length="12.90" shape="1493.60,-1.60 1497.10,-1.10 1499.60,0.40 1501.10,2.90 1501.60,6.40"/>
    </edge>
    <edge id=":n10_0" function="internal">
        <lane id=":n10_0_0" index="0" speed="16.67" length="20.80" shape="-4.80,510.40 -4.80,489.60"/>
        <lane id=":n10_0_1" index="1" speed="16.67" length="20.80" shape="-1.60,510.40 -1.60,489.60"/>
    </edge>
    <edge id=":n10_2" function="internal">
        <lane id=":n10_2_0" index="0" speed="9.26" length="5.01" shape="-1.60,510.40 -0.89,505.44"/>
    </edge>
    <edge id=":n10_9" function="internal">
        <lane id=":n10_9_0" index="0" speed="9.26" length="14.34" shape="-0.89,505.44 -0.85,505.15 1.40,501.40 5.15,499.15 10.40,498.40"/>
    </edge>
    <edge id=":n10_3" function="internal">
        <lane id=":n10_3_0" index="0" speed="6.51" length="9.03" shape="10.40,504.80 7.95,505.15 6.20,506.20 5.15,507.95 4.80,510.40"/>
        <lane id=":n10_3_1" index="1" speed="8.00" length="14.19" shape="10.40,501.60 6.55,502.15 3.80,503.80 2.15,506.55 1.60,510.40"/>
    </edge>
    <edge id=":n10_5" function="internal">
        <lane id=":n10_5_0" index="0" speed="9.26" length="19.35" shape="10.40,501.60 5.15,500.85 1.40,498.60 -0.85,494.85 -1.60,489.60"/>
    </edge>
    <edge id=":n10_6" function="internal">
        <lane id=":n10_6_0" index="0" speed="6.51" length="9.03" shape="4.80,489.60 5.15,492.05 6.20,493.80 7.95,494.85 10.40,495.20"/>
    </edge>
    <edge id=":n10_7" function="internal">
        <lane id=":n10_7_0" index="0" speed="16.67" length="20.80" shape="4.80,489.60 4.80,510.40"/>
        <lane id=":n10_7_1" index="1" speed="16.67" length="20.80" shape="1.60,489.60 1.60,510.40"/>
    </edge>
    <edge id=":n11_0" function="internal">
        <lane id=":n11_0_0" index="0" speed="6.51" length="9.03" shape="495.20,510.40 494.85,507.95 493.80,506.20 492.05,505.15 489.60,504.80"/>
    </edge>
    <edge id=":n11_1" function="internal">
        <lane id=":n11_1_0" index="0" speed="16.67" length="20.80" shape="495.20,510.40 495.20,489.60"/>
        <lane id=":n11_1_1" index="1" speed="16.67" length="20.80" shape="498.40,510.40 498.40,489.60"/>
    </edge>
    <edge id=":n11_3" function="internal">
        <lane id=":n11_3_0" index="0" speed="9.26" length="5.01" shape="498.40,510.40 499.11,505.44"/>
    </edge>
    <edge id=":n11_16" function="internal">
        <lane id=":n11_16_0" index="0" speed="9.26" length="14.34" shape="499.11,505.44 499.15,505.15 501.40,501.40 505.15,499.15 510.40,498.40"/>
    </edge>
    <edge id=":n11_4" function="internal">
        <lane id=":n11_4_0" index="0" speed="6.51" length="9.03" shape="510.40,504.80 507.95,505.15 506.20,506.20 505.15,507.95 504.80,510.40"/>
    </edge>
    <edge id=":n11_5" function="internal">
        <lane id=":n11_5_0" index="0" speed="16.67" length="20.80" shape="510.40,504.80 489.60,504.80"/>
        <lane id=":n11_5_1" index="1" speed="16.67" length="20.80" shape="510.40,501.60 489.60,501.60"/>
    </edge>
    <edge id=":n11_7" function="internal">
        <lane id=":n11_7_0" index="0" speed="9.26" length="5.01" shape="510.40,501.60 505.44,500.89"/>
    </edge>
    <edge id=":n11_17" function="internal">
        <lane id=":n11_17_0" index="0" speed="9.26" length="14.34" shape="505.44,500.89 505.15,500.85 501.40,498.60 499.15,494.85 498.40,489.60"/>
    </edge>
    <edge id=":n11_8" function="internal">
        <lane id=":n11_8_0" index="0" speed="6.51" length="9.03" shape="504.80,489.60 505.15,492.05 506.20,493.80 507.95,494.85 510.40,495.20"/>
    </edge>
    <edge id=":n11_9" function="internal">
        <lane id=":n11_9_0" index="0" speed="16.67" length="20.80" shape="504.80,489.60 504.80,510.40"/>
        <lane id=":n11_9_1" index="1" speed="16.67" length="20.80" shape="501.60,489.60 501.60,510.40"/>
    </edge>
    <edge id=":n11_11" function="internal">
        <lane id=":n11_11_0" index="0" speed="9.26" length="5.01" shape="501.60,489.60 500.89,494.56"/>
    </edge>
    <edge id=":n11_18" function="internal">
        <lane id=":n11_18_0" index="0" speed="9.26" length="14.34" shape="500.89,494.56 500.85,494.85 498.60,498.60 494.85,500.85 489.60,501.60"/>
    </edge>
    <edge id=":n11_12" function="internal">
        <lane id=":n11_12_0" index="0" speed="6.51" length="9.03" shape="489.60,495.20 492.05,494.85 493.80,493.80 494.85,492.05 495.20,489.60"/>
    </edge>
    <edge id=":n11_13" function="internal">
        <lane id=":n11_13_0" index="0" speed="16.67" length="20.80" shape="489.60,495.20 510.40,495.20"/>
        <lane id=":n11_13_1" index="1" speed="16.67" length="20.80" shape="489.60,498.40 510.40,498.40"/>
    </edge>
    <edge id=":n11_15" function="internal">
        <lane id=":n11_15_0" index="0" speed="9.26" length="5.01" shape="489.60,498.40 494.56,499.11"/>
    </edge>
    <edge id=":n11_19" function="internal">
        <lane id=":n11_19_0" index="0" speed="9.26" length="14.34" shape="494.56,499.11 494.85,499.15 498.60,501.40 500.85,505.15 501.60,510.40"/>
    </edge>
    <edge id=":n12_0" function="internal">
        <lane id=":n12_0_0" index="0" speed="6.51" length="9.03" shape="995.20,510.40 994.85,507.95 993.80,506.20 992.05,505.15 989.60,504.80"/>
    </edge>
    <edge id=":n12_1" function="internal">
        <lane id=":n12_1_0" index="0" speed="16.67" length="20.80" shape="995.20,510.40 995.20,489.60"/>
        <lane id=":n12_1_1" index="1" speed="16.67" length="20.80" shape="998.40,510.40 998.40,489.60"/>
    </edge>
    <edge id=":n12_3" function="internal">
        <lane id=":n12_3_0" index="0" speed="9.26" length="5.01" shape="998.40,510.40 999.11,505.44"/>
    </edge>
    <edge id=":n12_16" function="internal">
        <lane id=":n12_16_0" index="0" speed="9.26" length="14.34" shape="999.11,505.44 999.15,505.15 1001.40,501.40 1005.15,499.15 1010.40,498.40"/>
    </edge>
    <edge id=":n12_4" function="internal">
        <lane id=":n12_4_0" index="0" speed="6.51" length="9.03" shape="1010.40,504.80 1007.95,505.15 1006.20,506.20 1005.15,507.95 1004.80,510.40"/>
    </edge>
    <edge id=":n12_5" function="internal">
        <lane id=":n12_5_0" index="0" speed="16.67" length="20.80" shape="1010.40,504.80 989.60,504.80"/>
        <lane id=":n12_5_1" index="1" speed="16.67" length="20.80" shape="1010.40,501.60 989.60,501.60"/>
    </edge>
    <edge id=":n12_7" function="internal">
        <lane id=":n12_7_0" index="0" speed="9.26" length="5.01" shape="1010.40,501.60 1005.44,500.89"/>
    </edge>
    <edge id=":n12_17" function="internal">
        <lane id=":n12_17_0" index="0" speed="9.26" length="14.34" shape="1005.44,500.89 1005.15,500.85 1001.40,498.60 999.15,494.85 998.40,489.60"/>
    </edge>
    <edge id=":n12_8" function="internal">
        <lane id=":n12_8_0" index="0" speed="6.51" length="9.03" shape="1004.80,489.60 1005.15,492.05 1006.20,493.80 1007.95,494.85 1010.40,495.20"/>
    </edge>
    <edge id=":n12_9" function="internal">
        <lane id=":n12_9_0" index="0" speed="16.67" length="20.80" shape="1004.80,489.60 1004.80,510.40"/>
        <lane id=":n12_9_1" index="1" speed="16.67" length="20.80" shape="1001.60,489.60 1001.60,510.40"/>
    </edge>
    <edge id=":n12_11" function="internal">
        <lane id=":n12_11_0" index="0" speed="9.26" length="5.01" shape="1001.60,489.60 1000.89,494.56"/>
    </edge>
    <edge id=":n12_18" function="internal">
        <lane id=":n12_18_0" index="0" speed="9.26" length="14.34" shape="1000.89,494.56 1000.85,494.85 998.60,498.60 994.85,500.85 989.60,501.60"/>
    </edge>
    <edge id=":n12_12" function="internal">
        <lane id=":n12_12_0" index="0" speed="6.51" length="9.03" shape="989.60,495.20 992.05,494.85 993.80,493.80 994.85,492.05 995.20,489.60"/>
    </edge>
    <edge id=":n12_13" function="internal">
        <lane id=":n12_13_0" index="0" speed="16.67" length="20.80" shape="989.60,495.20 1010.40,495.20"/>
        <lane id=":n12_13_1" index="1" speed="16.67" length="20.80" shape="989.60,498.40 1010.40,498.40"/>
    </edge>
    <edge id=":n12_15" function="internal">
        <lane id=":n12_15_0" index="0" speed="9.26" length="5.01" shape="989.60,498.40 994.56,499.11"/>
    </edge>
    <edge id=":n12_19" function="internal">
        <lane id=":n12_19_0" index="0" speed="9.26" length="14.34" shape="994.56,499.11 994.85,499.15 998.60,501.40 1000.85,505.15 1001.60,510.40"/>
    </edge>
    <edge id=":n13_0" function="internal">
        <lane id=":n13_0_0" index="0" speed="6.51" length="9.03" shape="1495.20,510.40 1494.85,507.95 1493.80,506.20 1492.05,505.15 1489.60,504.80"/>
    </edge>
    <edge id=":n13_1" function="internal">
        <lane id=":n13_1_0" index="0" speed="16.67" length="20.80" shape="1495.20,510.40 1495.20,489.60"/>
        <lane id=":n13_1_1" index="1" speed="16.67" length="20.80" shape="1498.40,510.40 1498.40,489.60"/>
    </edge>
    <edge id=":n13_3" function="internal">
        <lane id=":n13_3_0" index="0" speed="16.67" length="20.80" shape="1504.80,489.60 1504.80,510.40"/>
        <lane id=":n13_3_1" index="1" speed="16.67" length="20.80" shape="1501.60,489.60 1501.60,510.40"/>
    </edge>
    <edge id=":n13_5" function="internal">
        <lane id=":n13_5_0" index="0" speed="9.26" length="5.01" shape="1501.60,489.60 1500.89,494.56"/>
    </edge>
    <edge id=":n13_9" function="internal">
        <lane id=":n13_9_0" index="0" speed="9.26" length="14.34" shape="1500.89,494.56 1500.85,494.85 1498.60,498.60 1494.85,500.85 1489.60,501.60"/>
    </edge>
    <edge id=":n13_6" function="internal">
        <lane id=":n13_6_0" index="0" speed="6.51" length="9.03" shape="1489.60,495.20 1492.05,494.85 1493.80,493.80 1494.85,492.05 1495.20,489.60"/>
        <lane id=":n13_6_1" index="1" speed="8.00" length="14.19" shape="1489.60,498.40 1493.45,497.85 1496.20,496.20 1497.85,493.45 1498.40,489.60"/>
    </edge>
    <edge id=":n13_8" function="internal">
        <lane id=":n13_8_0" index="0" speed="9.26" length="19.35" shape="1489.60,498.40 1494.85,499.15 1498.60,501.40 1500.85,505.15 1501.60,510.40"/>
    </edge>
    <edge id=":n20_0" function="internal">
        <lane id=":n20_0_0" index="0" speed="16.67" length="20.80" shape="-4.80,1010.40 -4.80,989.60"/>
        <lane id=":n20_0_1" index="1" speed="16.67" length="20.80" shape="-1.60,1010.40 -1.60,989.60"/>
    </edge>
    <edge id=":n20_2" function="internal">
        <lane id=":n20_2_0" index="0" speed="9.26" length="5.01" shape="-1.60,1010.40 -0.89,1005.44"/>
    </edge>
    <edge id=":n20_9" function="internal">
        <lane id=":n20_9_0" index="0" speed="9.26" length="14.34" shape="-0.89,1005.44 -0.85,1005.15 1.40,1001.40 5.15,999.15 10.40,998.40"/>
    </edge>
    <edge id=":n20_3" function="internal">
        <lane id=":n20_3_0" index="0" speed="6.51" length="9.03" shape="10.40,1004.80 7.95,1005.15 6.20,1006.20 5.15,1007.95 4.80,1010.40"/>
        <lane id=":n20_3_1" index="1" speed="8.00" length="14.19" shape="10.40,1001.60 6.55,1002.15 3.80,1003.80 2.15,1006.55 1.60,1010.40"/>
    </edge>
    <edge id=":n20_5" function="internal">
        <lane id=":n20_5_0" index="0" speed="9.26" length="19.35" shape="10.40,1001.60 5.15,1000.85 1.40,998.60 -0.85,994.85 -1.60,989.60"/>
    </edge>
    <edge id=":n20_6" function="internal">
        <lane id=":n20_6_0" index="0" speed="6.51" length="9.03" shape="4.80,989.60 5.15,992.05 6.20,993.80 7.95,994.85 10.40,995.20"/>
    </edge>
    <edge id=":n20_7" function="internal">
        <lane id=":n20_7_0" index="0" speed="16.67" length="20.80" shape="4.80,989.60 4.80,1010.40"/>
        <lane id=":n20_7_1" index="1" speed="16.67" length="20.80" shape="1.60,989.60 1.60,1010.40"/>
    </edge>
    <edge id=":n21_0" function="internal">
        <lane id=":n21_0_0" index="0" speed="6.51" length="9.03" shape="495.20,1010.40 494.85,1007.95 493.80,1006.20 492.05,1005.15 489.60,1004.80"/>
    </edge>
    <edge id=":n21_1" function="internal">
        <lane id=":n21_1_0" index="0" speed="16.67" length="20.80" shape="495.20,1010.40 495.20,989.60"/>
        <lane id=":n21_1_1" index="1" speed="16.67" length="20.80" shape="498.40,1010.40 498.40,989.60"/>
    </edge>
    <edge id=":n21_3" function="internal">
        <lane id=":n21_3_0" index="0" speed="9.26" length="5.01" shape="498.40,1010.40 499.11,1005.44"/>
    </edge>
    <edge id=":n21_16" function="internal">
        <lane id=":n21_16_0" index="0" speed="9.26" length="14.34" shape="499.11,1005.44 499.15,1005.15 501.40,1001.40 505.15,999.15 510.40,998.40"/>
    </edge>
    <edge id=":n21_4" function="internal">
        <lane id=":n21_4_0" index="0" speed="6.51" length="9.03" shape="510.40,1004.80 507.95,1005.15 506.20,1006.20 505.15,1007.95 504.80,1010.40"/>
    </edge>
    <edge id=":n21_5" function="internal">
        <lane id=":n21_5_0" index="0" speed="16.67" length="20.80" shape="510.40,1004.80 489.60,1004.80"/>
        <lane id=":n21_5_1" index="1" speed="16.67" length="20.80" shape="510.40,1001.60 489.60,1001.60"/>
    </edge>
    <edge id=":n21_7" function="internal">
        <lane id=":n21_7_0" index="0" speed="9.26" length="5.01" shape="510.40,1001.60 505.44,1000.89"/>
    </edge>
    <edge id=":n21_17" function="internal">
        <lane id=":n21_17_0" index="0" speed="9.26" length="14.34" shape="505.44,1000.89 505.15,1000.85 501.40,998.60 499.15,994.85 498.40,989.60"/>
    </edge>
    <edge id=":n21_8" function="internal">
        <lane id=":n21_8_0" index="0" speed="6.51" length="9.03" shape="504.80,989.60 505.15,992.05 506.20,993.80 507.95,994.85 510.40,995.20"/>
    </edge>
    <edge id=":n21_9" function="internal">
        <lane id=":n21_9_0" index="0" speed="16.67" length="20.80" shape="504.80,989.60 504.80,1010.40"/>
        <lane id=":n21_9_1" index="1" speed="16.67" length="20.80" shape="501.60,989.60 501.60,1010.40"/>
    </edge>
    <edge id=":n21_11" function="internal">
        <lane id=":n21_11_0" index="0" speed="9.26" length="5.01" shape="501.60,989.60 500.89,994.56"/>
    </edge>
    <edge id=":n21_18" function="internal">
        <lane id=":n21_18_0" index="0" speed="9.26" length="14.34" shape="500.89,994.56 500.85,994.85 498.60,998.60 494.85,1000.85 489.60,1001.60"/>
    </edge>
    <edge id=":n21_12" function="internal">
        <lane id=":n21_12_0" index="0" speed="6.51" length="9.03" shape="489.60,995.20 492.05,994.85 493.80,993.80 494.85,992.05 495.20,989.60"/>
    </edge>
    <edge id=":n21_13" function="internal">
        <lane id=":n21_13_0" index="0" speed="16.67" length="20.80" shape="489.60,995.20 510.40,995.20"/>
        <lane id=":n21_13_1" index="1" speed="16.67" length="20.80" shape="489.60,998.40 510.40,998.40"/>
    </edge>
    <edge id=":n21_15" function="internal">
        <lane id=":n21_15_0" index="0" speed="9.26" length="5.01" shape="489.60,998.40 494.56,999.11"/>
    </edge>
    <edge id=":n21_19" function="internal">
        <lane id=":n21_19_0" index="0" speed="9.26" length="14.34" shape="494.56,999.11 494.85,999.15 498.60,1001.40 500.85,1005.15 501.60,1010.40"/>
    </edge>
    <edge id=":n22_0" function="internal">
        <lane id=":n22_0_0" index="0" speed="6.51" length="9.03" shape="995.20,1010.40 994.85,1007.95 993.80,1006.20 992.05,1005.15 989.60,1004.80"/>
    </edge>
    <edge id=":n22_1" function="internal">
        <lane id=":n22_1_0" index="0" speed="16.67" length="20.80" shape="995.20,1010.40 995.20,989.60"/>
        <lane id=":n22_1_1" index="1" speed="16.67" length="20.80" shape="998.40,1010.40 998.40,989.60"/>
    </edge>
    <edge id=":n22_3" function="internal">
        <lane id=":n22_3_0" index="0" speed="9.26" length="5.01" shape="998.40,1010.40 999.11,1005.44"/>
    </edge>
    <edge id=":n22_16" function="internal">
        <lane id=":n22_16_0" index="0" speed="9.26" length="14.34" shape="999.11,1005.44 999.15,1005.15 1001.40,1001.40 1005.15,999.15 1010.40,998.40"/>
    </edge>
    <edge id=":n22_4" function="internal">
        <lane id=":n22_4_0" index="0" speed="6.51" length="9.03" shape="1010.40,1004.80 1007.95,1005.15 1006.20,1006.20 1005.15,1007.95 1004.80,1010.40"/>
    </edge>
    <edge id=":n22_5" function="internal">
        <lane id=":n22_5_0" index="0" speed="16.67" length="20.80" shape="1010.40,1004.80 989.60,1004.80"/>
        <lane id=":n22_5_1" index="1" speed="16.67" length="20.80" shape="1010.40,1001.60 989.60,1001.60"/>
    </edge>
    <edge id=":n22_7" function="internal">
        <lane id=":n22_7_0" index="0" speed="9.26" length="5.01" shape="1010.40,1001.60 1005.44,1000.89"/>
    </edge>
    <edge id=":n22_17" function="internal">
        <lane id=":n22_17_0" index="0" speed="9.26" length="14.34" shape="1005.44,1000.89 1005.15,1000.85 1001.40,998.60 999.15,994.85 998.40,989.60"/>
    </edge>
    <edge id=":n22_8" function="internal">
        <lane id=":n22_8_0" index="0" speed="6.51" length="9.03" shape="1004.80,989.60 1005.15,992.05 1006.20,993.80 1007.95,994.85 1010.40,995.20"/>
    </edge>
    <edge id=":n22_9" function="internal">
        <lane id=":n22_9_0" index="0" speed="16.67" length="20.80" shape="1004.80,989.60 1004.80,1010.40"/>
        <lane id=":n22_9_1" index="1" speed="16.67" length="20.80" shape="1001.60,989.60 1001.60,1010.40"/>
    </edge>
    <edge id=":n22_11" function="internal">
        <lane id=":n22_11_0" index="0" speed="9.26" length="5.01" shape="1001.60,989.60 1000.89,994.56"/>
    </edge>
    <edge id=":n22_18" function="internal">
        <lane id=":n22_18_0" index="0" speed="9.26" length="14.34" shape="1000.89,994.56 1000.85,994.85 998.60,998.60 994.85,1000.85 989.60,1001.60"/>
    </edge>
    <edge id=":n22_12" function="internal">
        <lane id=":n22_12_0" index="0" speed="6.51" length="9.03" shape="989.60,995.20 992.05,994.85 993.80,993.80 994.85,992.05 995.20,989.60"/>
    </edge>
    <edge id=":n22_13" function="internal">
        <lane id=":n22_13_0" index="0" speed="16.67" length="20.80" shape="989.60,995.20 1010.40,995.20"/>
        <lane id=":n22_13_1" index="1" speed="16.67" length="20.80" shape="989.60,998.40 1010.40,998.40"/>
    </edge>
    <edge id=":n22_15" function="internal">
        <lane id=":n22_15_0" index="0" speed="9.26" length="5.01" shape="989.60,998.40 994.56,999.11"/>
    </edge>
    <edge id=":n22_19" function="internal">
        <lane id=":n22_19_0" index="0" speed="9.26" length="14.34" shape="994.56,999.11 994.85,999.15 998.60,1001.40 1000.85,1005.15 1001.60,1010.40"/>
    </edge>
    <edge id=":n23_0" function="internal">
        <lane id=":n23_0_0" index="0" speed="6.51" length="9.03" shape="1495.20,1010.40 1494.85,1007.95 1493.80,1006.20 1492.05,1005.15 1489.60,1004.80"/>
    </edge>
    <edge id=":n23_1" function="internal">
        <lane id=":n23_1_0" index="0" speed="16.67" length="20.80" shape="1495.20,1010.40 1495.20,989.60"/>
        <lane id=":n23_1_1" index="1" speed="16.67" length="20.80" shape="1498.40,1010.40 1498.40,989.60"/>
    </edge>
    <edge id=":n23_3" function="internal">
        <lane id=":n23_3_0" index="0" speed="16.67" length="20.80" shape="1504.80,989.60 1504.80,1010.40"/>
        <lane id=":n23_3_1" index="1" speed="16.67" length="20.80" shape="1501.60,989.60 1501.60,1010.40"/>
    </edge>
    <edge id=":n23_5" function="internal">
        <lane id=":n23_5_0" index="0" speed="9.26" length="5.01" shape="1501.60,989.60 1500.89,994.56"/>
    </edge>
    <edge id=":n23_9" function="internal">
        <lane id=":n23_9_0" index="0" speed="9.26" length="14.34" shape="1500.89,994.56 1500.85,994.85 1498.60,998.60 1494.85,1000.85 1489.60,1001.60"/>
    </edge>
    <edge id=":n23_6" function="internal">
        <lane id=":n23_6_0" index="0" speed="6.51" length="9.03" shape="1489.60,995.20 1492.05,994.85 1493.80,993.80 1494.85,992.05 1495.20,989.60"/>
        <lane id=":n23_6_1" index="1" speed="8.00" length="14.19" shape="1489.60,998.40 1493.45,997.85 1496.20,996.20 1497.85,993.45 1498.40,989.60"/>
    </edge>
    <edge id=":n23_8" function="internal">
        <lane id=":n23_8_0" index="0" speed="9.26" length="19.35" shape="1489.60,998.40 1494.85,999.15 1498.60,1001.40 1500.85,1005.15 1501.60,1010.40"/>
    </edge>
    <edge id=":n30_0" function="internal">
        <lane id=":n30_0_0" index="0" speed="8.96" length="18.06" shape="6.40,1504.80 1.50,1504.10 -2.00,1502.00 -4.10,1498.50 -4.80,1493.60"/>
        <lane id=":n30_0_1" index="1" speed="7.66" length="12.90" shape="6.40,1501.60 2.90,1501.10 0.40,1499.60 -1.10,1497.10 -1.60,1493.60"/>
    </edge>
    <edge id=":n30_2" function="internal">
        <lane id=":n30_2_0" index="0" speed="3.90" length="2.58" shape="4.80,1493.60 4.90,1494.30 5.20,1494.80 5.70,1495.10 6.40,1495.20"/>
        <lane id=":n30_2_1" index="1" speed="6.08" length="7.74" shape="1.60,1493.60 1.90,1495.70 2.80,1497.20 4.30,1498.10 6.40,1498.40"/>
    </edge>
    <edge id=":n31_0" function="internal">
        <lane id=":n31_0_0" index="0" speed="16.67" length="20.80" shape="510.40,1504.80 489.60,1504.80"/>
        <lane id=":n31_0_1" index="1" speed="16.67" length="20.80" shape="510.40,1501.60 489.60,1501.60"/>
    </edge>
    <edge id=":n31_2" function="internal">
        <lane id=":n31_2_0" index="0" speed="9.26" length="5.01" shape="510.40,1501.60 505.44,1500.89"/>
    </edge>
    <edge id=":n31_9" function="internal">
        <lane id=":n31_9_0" index="0" speed="9.26" length="14.34" shape="505.44,1500.89 505.15,1500.85 501.40,1498.60 499.15,1494.85 498.40,1489.60"/>
    </edge>
    <edge id=":n31_3" function="internal">
        <lane id=":n31_3_0" index="0" speed="6.51" length="9.03" shape="504.80,1489.60 505.15,1492.05 506.20,1493.80 507.95,1494.85 510.40,1495.20"/>
        <lane id=":n31_3_1" index="1" speed="8.00" length="14.19" shape="501.60,1489.60 502.15,1493.45 503.80,1496.20 506.55,1497.85 510.40,1498.40"/>
    </edge>
    <edge id=":n31_5" function="internal">
        <lane id=":n31_5_0" index="0" speed="9.26" length="19.35" shape="501.60,1489.60 500.85,1494.85 498.60,1498.60 494.85,1500.85 489.60,1501.60"/>
    </edge>
    <edge id=":n31_6" function="internal">
        <lane id=":n31_6_0" index="0" speed="6.51" length="9.03" shape="489.60,1495.20 492.05,1494.85 493.80,1493.80 494.85,1492.05 495.20,1489.60"/>
    </edge>
    <edge id=":n31_7" function="internal">
        <lane id=":n31_7_0" index="0" speed="16.67" length="20.80" shape="489.60,1495.20 510.40,1495.20"/>
        <lane id=":n31_7_1" index="1" speed="16.67" length="20.80" shape="489.60,1498.40 510.40,1498.40"/>
    </edge>
    <edge id=":n32_0" function="internal">
        <lane id=":n32_0_0" index="0" speed="16.67" length="20.80" shape="1010.40,1504.80 989.60,1504.80"/>
        <lane id=":n32_0_1" index="1" speed="16.67" length="20.80" shape="1010.40,1501.60 989.60,1501.60"/>
    </edge>
    <edge id=":n32_2" function="internal">
        <lane id=":n32_2_0" index="0" speed="9.26" length="5.01" shape="1010.40,1501.60 1005.44,1500.89"/>
    </edge>
    <edge id=":n32_9" function="internal">
        <lane id=":n32_9_0" index="0" speed="9.26" length="14.34" shape="1005.44,1500.89 1005.15,1500.85 1001.40,1498.60 999.15,1494.85 998.40,1489.60"/>
    </edge>
    <edge id=":n32_3" function="internal">
        <lane id=":n32_3_0" index="0" speed="6.51" length="9.03" shape="1004.80,1489.60 1005.15,1492.05 1006.20,1493.80 1007.95,1494.85 1010.40,1495.20"/>
        <lane id=":n32_3_1" index="1" speed="8.00" length="14.19" shape="1001.60,1489.60 1002.15,1493.45 1003.80,1496.20 1006.55,1497.85 1010.40,1498.40"/>
    </edge>
    <edge id=":n32_5" function="internal">
        <lane id=":n32_5_0" index="0" speed="9.26" length="19.35" shape="1001.60,1489.60 1000.85,1494.85 998.60,1498.60 994.85,1500.85 989.60,1501.60"/>
    </edge>
    <edge id=":n32_6" function="internal">
        <lane id=":n32_6_0" index="0" speed="6.51" length="9.03" shape="989.60,1495.20 992.05,1494.85 993.80,1493.80 994.85,1492.05 995.20,1489.60"/>
    </edge>
    <edge id=":n32_7" function="internal">
        <lane id=":n32_7_0" index="0" speed="16.67" length="20.80" shape="989.60,1495.20 1010.40,1495.20"/>
        <lane id=":n32_7_1" index="1" speed="16.67" length="20.80" shape="989.60,1498.40 1010.40,1498.40"/>
    </edge>
    <edge id=":n33_0" function="internal">
        <lane id=":n33_0_0" index="0" speed="8.96" length="18.06" shape="1504.80,1493.60 1504.10,1498.50 1502.00,1502.00 1498.50,1504.10 1493.60,1504.80"/>
        <lane id=":n33_0_1" index="1" speed="7.66" length="12.90" shape="1501.60,1493.60 1501.10,1497.10 1499.60,1499.60 1497.10,1501.10 1493.60,1501.60"/>
    </edge>
    <edge id=":n33_2" function="internal">
        <lane id=":n33_2_0" index="0" speed="3.90" length="2.58" shape="1493.60,1495.20 1494.30,1495.10 1494.80,1494.80 1495.10,1494.30 1495.20,1493.60"/>