<?xml version="1.0" encoding="UTF-8"?>
<nodes>
    <!-- 4x4 Grid Intersection Network for IoV Simulation -->
    <!-- Each node is an intersection, spaced 500m apart -->
    
    <!-- Row 0 -->
    <node id="n00" x="0"    y="0"    type="traffic_light"/>
    <node id="n01" x="500"  y="0"    type="traffic_light"/>
    <node id="n02" x="1000" y="0"    type="traffic_light"/>
    <node id="n03" x="1500" y="0"    type="traffic_light"/>
    
    <!-- Row 1 -->
    <node id="n10" x="0"    y="500"  type="traffic_light"/>
    <node id="n11" x="500"  y="500"  type="traffic_light"/>
    <node id="n12" x="1000" y="500"  type="traffic_light"/>
    <node id="n13" x="1500" y="500"  type="traffic_light"/>
    
    <!-- Row 2 -->
    <node id="n20" x="0"    y="1000" type="traffic_light"/>
    <node id="n21" x="500"  y="1000" type="traffic_light"/>
    <node id="n22" x="1000" y="1000" type="traffic_light"/>
    <node id="n23" x="1500" y="1000" type="traffic_light"/>
    
    <!-- Row 3 -->
    <node id="n30" x="0"    y="1500" type="traffic_light"/>
    <node id="n31" x="500"  y="1500" type="traffic_light"/>
    <node id="n32" x="1000" y="1500" type="traffic_light"/>
    <node id="n33" x="1500" y="1500" type="traffic_light"/>
</nodes>
