<?xml version="1.0" encoding="UTF-8"?>
<configuration>
    <input>
        <net-file value="network.net.xml"/>
        <route-files value="vehicles.rou.xml"/>
    </input>
    <time>
        <begin value="0"/>
        <end value="3600"/>
        <step-length value="1.0"/>
    </time>
    <processing>
        <time-to-teleport value="-1"/>
    </processing>
</configuration>
