<?xml version='1.0' encoding='UTF-8'?>
<routes>
    <vType id="car" accel="2.6" decel="4.5" sigma="0.5" length="5" minGap="2.5" maxSpeed="16.67" color="0.0,1.0,0.0" />
    <vType id="fast_car" accel="3.5" decel="5.0" sigma="0.3" length="5" minGap="2.0" maxSpeed="22.22" color="0.0,0.5,1.0" />
    <vehicle id="v_20" type="car" depart="1.4" departSpeed="max" departLane="best">
        <route edges="e23_13 e13_12 e12_11 e11_21 e21_11 e11_10 e10_20 e20_21 e21_20 e20_30 e30_20 e20_10" />
    </vehicle>
    <vehicle id="v_41" type="car" depart="6.9" departSpeed="max" departLane="best">
        <route edges="e21_20 e20_30 e30_31 e31_21 e21_31 e31_32 e32_22 e22_32 e32_31 e31_30 e30_20 e20_10 e10_11 e11_01 e01_00" />
    </vehicle>
    <vehicle id="v_176" type="car" depart="9.7" departSpeed="max" departLane="best">
        <route edges="e33_32 e32_31 e31_21 e21_31 e31_32 e32_22 e22_21 e21_20 e20_21 e21_22 e22_12" />
    </vehicle>
    <vehicle id="v_97" type="fast_car" depart="11.9" departSpeed="max" departLane="best">
        <route edges="e33_32 e32_33 e33_23 e23_13 e13_23 e23_22 e22_32 e32_31 e31_21 e21_31 e31_32 e32_22 e22_23 e23_33 e33_32" />
    </vehicle>
    <vehicle id="v_110" type="car" depart="12.5" departSpeed="max" departLane="best">
        <route edges="e01_02 e02_01 e01_00 e00_01 e01_11 e11_01 e01_00 e00_10 e10_20" />
    </vehicle>
    <vehicle id="v_47" type="fast_car" depart="15.8" departSpeed="max" departLane="best">
        <route edges="e03_13 e13_23 e23_22 e22_32 e32_31" />
    </vehicle>
    <vehicle id="v_199" type="fast_car" depart="18.1" departSpeed="max" departLane="best">
        <route edges="e23_13 e13_12 e12_13 e13_23 e23_22 e22_32" />
    </vehicle>
    <vehicle id="v_146" type="car" depart="32.6" departSpeed="max" departLane="best">
        <route edges="e20_21 e21_31 e31_32 e32_33 e33_23 e23_13 e13_03" />
    </vehicle>
    <vehicle id="v_151" type="fast_car" depart="34.6" departSpeed="max" departLane="best">
        <route edges="e11_10 e10_00 e00_01 e01_11 e11_12 e12_11 e11_01 e01_00 e00_10 e10_20 e20_21 e21_31 e31_21 e21_11" />
    </vehicle>
    <vehicle id="v_60" type="fast_car" depart="34.8" departSpeed="max" departLane="best">
        <route edges="e01_11 e11_12 e12_13 e13_23" />
    </vehicle>
    <vehicle id="v_194" type="car" depart="34.9" departSpeed="max" departLane="best">
        <route edges="e31_30 e30_31 e31_21 e21_20 e20_10 e10_11 e11_10" />
    </vehicle>
    <vehicle id="v_31" type="fast_car" depart="45.8" departSpeed="max" departLane="best">
        <route edges="e01_00 e00_01 e01_02 e02_12 e12_13 e13_12 e12_02 e02_01 e01_11 e11_21" />
    </vehicle>
    <vehicle id="v_164" type="car" depart="46.7" departSpeed="max" departLane="best">
        <route edges="e12_02 e02_01 e01_00 e00_01 e01_02 e02_03 e03_13 e13_12 e12_13 e13_23 e23_33 e33_23 e23_13 e13_03" />
    </vehicle>
    <vehicle id="v_123" type="car" depart="47.4" departSpeed="max" departLane="best">
        <route edges="e01_02 e02_03 e03_13 e13_23 e23_33 e33_32 e32_31 e31_32 e32_33 e33_23 e23_22 e22_21" />
    </vehicle>
    <vehicle id="v_159" type="car" depart="48.2" departSpeed="max" departLane="best">
        <route edges="e23_13 e13_03 e03_13 e13_23 e23_22 e22_32 e32_31 e31_21 e21_22 e22_23 e23_33" />
    </vehicle>
    <vehicle id="v_50" type="fast_car" depart="51.7" departSpeed="max" departLane="best">
        <route edges="e22_12 e12_11 e11_12 e12_22 e22_21 e21_20 e20_10 e10_11 e11_01 e01_00 e00_10 e10_00 e00_01 e01_11" />
    </vehicle>
    <vehicle id="v_68" type="car" depart="52.3" departSpeed="max" departLane="best">
        <route edges="e02_03 e03_13 e13_12 e12_02 e02_12 e12_22 e22_23 e23_33 e33_32 e32_31 e31_30 e30_20 e20_21" />
    </vehicle>
    <vehicle id="v_93" type="car" depart="53.2" departSpeed="max" departLane="best">
        <route edges="e13_03 e03_02 e02_03 e03_13 e13_23 e23_22 e22_23 e23_33 e33_23 e23_13 e13_12 e12_22 e22_32 e32_33 e33_32" />
    </vehicle>
    <vehicle id="v_88" type="fast_car" depart="53.8" departSpeed="max" departLane="best">
        <route edges="e10_11 e11_12 e12_02 e02_01 e01_11 e11_10" />
    </vehicle>
    <vehicle id="v_46" type="car" depart="55.1" departSpeed="max" departLane="best">
        <route edges="e23_33 e33_23 e23_22 e22_21 e21_20 e20_21 e21_11 e11_01 e01_00 e00_01 e01_11 e11_10 e10_00 e00_10" />
    </vehicle>
    <vehicle id="v_27" type="fast_car" depart="60.6" departSpeed="max" departLane="best">
        <route edges="e10_20 e20_30 e30_20 e20_21 e21_31 e31_32 e32_33 e33_32 e32_31 e31_30 e30_31 e31_21 e21_22 e22_12 e12_22" />
    </vehicle>
    <vehicle id="v_115" type="fast_car" depart="62.0" departSpeed="max" departLane="best">
        <route edges="e32_22 e22_12 e12_22 e22_23 e23_22 e22_21" />
    </vehicle>
    <vehicle id="v_19" type="fast_car" depart="62.9" departSpeed="max" departLane="best">
        <route edges="e20_10 e10_00 e00_10 e10_20 e20_30 e30_20 e20_21 e21_22 e22_32" />
    </vehicle>
    <vehicle id="v_132" type="car" depart="64.1" departSpeed="max" departLane="best">
        <route edges="e20_10 e10_11 e11_12 e12_02 e02_03 e03_13 e13_03 e03_02" />
    </vehicle>
    <vehicle id="v_161" type="fast_car" depart="67.2" departSpeed="max" departLane="best">
        <route edges="e03_02 e02_12 e12_11 e11_01 e01_11 e11_21 e21_20 e20_10 e10_20 e20_21 e21_11 e11_12 e12_02" />
    </vehicle>
    <vehicle id="v_111" type="fast_car" depart="68.0" departSpeed="max" departLane="best">
        <route edges="e30_20 e20_10 e10_20 e20_21 e21_11 e11_01 e01_11 e11_21 e21_22" />
    </vehicle>
    <vehicle id="v_130" type="car" depart="69.8" departSpeed="max" departLane="best">
        <route edges="e03_13 e13_23 e23_33 e33_23 e23_22 e22_12 e12_22 e22_32 e32_33 e33_32 e32_31 e31_21 e21_11 e11_12" />
    </vehicle>
    <vehicle id="v_108" type="fast_car" depart="80.9" departSpeed="max" departLane="best">
        <route edges="e20_30 e30_31 e31_30 e30_20" />
    </vehicle>
    <vehicle id="v_15" type="fast_car" depart="83.0" departSpeed="max" departLane="best">
        <route edges="e13_03 e03_13 e13_23 e23_22 e22_23 e23_33 e33_32" />
    </vehicle>
    <vehicle id="v_129" type="car" depart="85.2" departSpeed="max" departLane="best">
        <route edges="e00_01 e01_02 e02_12 e12_13 e13_03 e03_02 e02_03 e03_13" />
    </vehicle>
    <vehicle id="v_137" type="car" depart="88.7" departSpeed="max" departLane="best">
        <route edges="e32_31 e31_32 e32_33 e33_23 e23_13 e13_12 e12_13 e13_03 e03_02 e02_03 e03_13 e13_23 e23_22 e22_21" />
    </vehicle>
    <vehicle id="v_96" type="fast_car" depart="90.7" departSpeed="max" departLane="best">
        <route edges="e01_00 e00_10 e10_11 e11_12 e12_13 e13_23 e23_22 e22_23 e23_33 e33_32 e32_31 e31_21 e21_31" />
    </vehicle>
    <vehicle id="v_190" type="car" depart="93.1" departSpeed="max" departLane="best">
        <route edges="e11_01 e01_02 e02_03 e03_13 e13_23 e23_33" />
    </vehicle>
    <vehicle id="v_82" type="fast_car" depart="93.9" departSpeed="max" departLane="best">
        <route edges="e13_12 e12_11 e11_21 e21_11 e11_01 e01_00 e00_01" />
    </vehicle>
    <vehicle id="v_147" type="fast_car" depart="99.4" departSpeed="max" departLane="best">
        <route edges="e02_12 e12_13 e13_23 e23_33 e33_23 e23_13 e13_03 e03_02 e02_03 e03_13 e13_12" />
    </vehicle>
    <vehicle id="v_101" type="car" depart="102.0" departSpeed="max" departLane="best">
        <route edges="e03_02 e02_01 e01_11 e11_12 e12_11 e11_10 e10_11 e11_21 e21_20 e20_30 e30_31 e31_30 e30_20 e20_21 e21_11" />
    </vehicle>
    <vehicle id="v_66" type="fast_car" depart="105.0" departSpeed="max" departLane="best">
        <route edges="e31_30 e30_31 e31_21 e21_11 e11_10 e10_11 e11_12 e12_02 e02_12" />
    </vehicle>
    <vehicle id="v_166" type="car" depart="106.2" departSpeed="max" departLane="best">
        <route edges="e31_32 e32_31 e31_30 e30_31 e31_21 e21_11 e11_10 e10_00 e00_01 e01_11 e11_01 e01_02 e02_03 e03_13 e13_12" />
    </vehicle>
    <vehicle id="v_206" type="fast_car" depart="108.4" departSpeed="max" departLane="best">
        <route edges="e32_31 e31_30 e30_20 e20_30 e30_31 e31_32" />
    </vehicle>
    <vehicle id="v_189" type="car" depart="108.8" departSpeed="max" departLane="best">
        <route edges="e02_01 e01_00 e00_10 e10_11 e11_21" />
    </vehicle>
    <vehicle id="v_52" type="fast_car" depart="110.3" departSpeed="max" departLane="best">
        <route edges="e21_22 e22_23 e23_13 e13_23 e23_33 e33_32 e32_22 e22_21 e21_31 e31_30 e30_31 e31_32 e32_31 e31_21 e21_20" />
    </vehicle>
    <vehicle id="v_140" type="car" depart="110.7" departSpeed="max" departLane="best">
        <route edges="e10_00 e00_10 e10_20 e20_21 e21_31 e31_21 e21_11 e11_10 e10_11 e11_12 e12_02" />
    </vehicle>
    <vehicle id="v_76" type="car" depart="111.8" departSpeed="max" departLane="best">
        <route edges="e23_33 e33_32 e32_33 e33_23 e23_22 e22_23 e23_13" />
    </vehicle>
    <vehicle id="v_119" type="car" depart="125.5" departSpeed="max" departLane="best">
        <route edges="e10_00 e00_10 e10_11 e11_10 e10_20 e20_30 e30_20 e20_21 e21_31 e31_21 e21_20 e20_10 e10_20" />
    </vehicle>
    <vehicle id="v_182" type="fast_car" depart="129.4" departSpeed="max" departLane="best">
        <route edges="e33_32 e32_33 e33_23 e23_33 e33_23 e23_13 e13_23 e23_22 e22_21 e21_31 e31_30" />
    </vehicle>
    <vehicle id="v_24" type="car" depart="129.7" departSpeed="max" departLane="best">
        <route edges="e22_12 e12_02 e02_01 e01_00 e00_10 e10_00 e00_01 e01_11 e11_01 e01_02 e02_03 e03_02 e02_12 e12_22 e22_21" />
    </vehicle>
    <vehicle id="v_106" type="fast_car" depart="132.9" departSpeed="max" departLane="best">
        <route edges="e13_03 e03_02 e02_03 e03_13 e13_12 e12_22 e22_12 e12_02 e02_12 e12_11 e11_21 e21_11 e11_12 e12_13" />
    </vehicle>
    <vehicle id="v_158" type="fast_car" depart="133.6" departSpeed="max" departLane="best">
        <route edges="e00_10 e10_20 e20_10 e10_11 e11_21" />
    </vehicle>
    <vehicle id="v_40" type="car" depart="136.3" departSpeed="max" departLane="best">
        <route edges="e12_11 e11_21 e21_22 e22_23 e23_13 e13_03 e03_02 e02_12 e12_13 e13_23 e23_22" />
    </vehicle>
    <vehicle id="v_162" type="fast_car" depart="140.0" departSpeed="max" departLane="best">
        <route edges="e03_13 e13_23 e23_33 e33_32 e32_22 e22_12 e12_11 e11_12" />
    </vehicle>
    <vehicle id="v_38" type="car" depart="141.9" departSpeed="max" departLane="best">
        <route edges="e03_02 e02_01 e01_00 e00_10 e10_11 e11_01 e01_02 e02_03 e03_13 e13_03 e03_13 e13_23 e23_33" />
    </vehicle>
    <vehicle id="v_75" type="fast_car" depart="145.3" departSpeed="max" departLane="best">
        <route edges="e21_31 e31_32 e32_33 e33_23 e23_33 e33_32 e32_22 e22_23 e23_22 e22_32 e32_31" />
    </vehicle>
    <vehicle id="v_26" type="fast_car" depart="151.2" departSpeed="max" departLane="best">
        <route edges="e21_11 e11_10 e10_00 e00_01 e01_00 e00_10 e10_11 e11_12 e12_22 e22_23 e23_33 e33_23 e23_13 e13_12 e12_11" />
    </vehicle>
    <vehicle id="v_120" type="fast_car" depart="152.0" departSpeed="max" departLane="best">
        <route edges="e33_23 e23_13 e13_12 e12_13 e13_03 e03_02 e02_03" />
    </vehicle>
    <vehicle id="v_127" type="car" depart="152.8" departSpeed="max" departLane="best">
        <route edges="e00_01 e01_00 e00_10 e10_11 e11_12 e12_22 e22_23 e23_33 e33_23 e23_22 e22_12 e12_02" />
    </vehicle>
    <vehicle id="v_98" type="fast_car" depart="160.5" departSpeed="max" departLane="best">
        <route edges="e20_30 e30_31 e31_30 e30_20 e20_21 e21_11 e11_21" />
    </vehicle>
    <vehicle id="v_8" type="car" depart="161.6" departSpeed="max" departLane="best">
        <route edges="e03_02 e02_03 e03_13 e13_12 e12_02 e02_12 e12_22 e22_32 e32_22 e22_23 e23_33 e33_23" />
    </vehicle>
    <vehicle id="v_181" type="car" depart="163.3" departSpeed="max" departLane="best">
        <route edges="e33_32 e32_31 e31_21 e21_22 e22_21 e21_20 e20_30 e30_31 e31_32" />
    </vehicle>
    <vehicle id="v_171" type="fast_car" depart="167.2" departSpeed="max" departLane="best">
        <route edges="e32_22 e22_32 e32_33 e33_23 e23_13 e13_12 e12_22 e22_21" />
    </vehicle>
    <vehicle id="v_116" type="car" depart="170.2" departSpeed="max" departLane="best">
        <route edges="e33_23 e23_13 e13_23 e23_33 e33_32 e32_31 e31_21 e21_20 e20_30 e30_20 e20_21" />
    </vehicle>
    <vehicle id="v_126" type="fast_car" depart="173.1" departSpeed="max" departLane="best">
        <route edges="e02_03 e03_02 e02_01 e01_02 e02_12 e12_11 e11_21 e21_31 e31_30 e30_20 e20_30 e30_31 e31_32 e32_22 e22_12" />
    </vehicle>
    <vehicle id="v_163" type="car" depart="173.1" departSpeed="max" departLane="best">
        <route edges="e23_33 e33_32 e32_22 e22_23" />
    </vehicle>
    <vehicle id="v_136" type="car" depart="182.9" departSpeed="max" departLane="best">
        <route edges="e02_01 e01_00 e00_01 e01_11 e11_12 e12_11 e11_10 e10_20 e20_10 e10_11" />
    </vehicle>
    <vehicle id="v_193" type="car" depart="184.2" departSpeed="max" departLane="best">
        <route edges="e33_32 e32_31 e31_32 e32_22 e22_21 e21_20 e20_10 e10_20" />
    </vehicle>
    <vehicle id="v_186" type="car" depart="194.6" departSpeed="max" departLane="best">
        <route edges="e30_20 e20_10 e10_00 e00_01 e01_00 e00_10 e10_20 e20_30 e30_31 e31_30 e30_20 e20_21" />
    </vehicle>
    <vehicle id="v_85" type="car" depart="195.2" departSpeed="max" departLane="best">
        <route edges="e32_31 e31_30 e30_20 e20_21 e21_11 e11_10 e10_00 e00_10 e10_20 e20_30 e30_31 e31_32 e32_33" />
    </vehicle>
    <vehicle id="v_64" type="fast_car" depart="203.1" departSpeed="max" departLane="best">
        <route edges="e00_10 e10_00 e00_01 e01_00 e00_10 e10_20 e20_30 e30_31 e31_32 e32_22 e22_12" />
    </vehicle>
    <vehicle id="v_109" type="fast_car" depart="204.4" departSpeed="max" departLane="best">
        <route edges="e22_32 e32_22 e22_21 e21_11 e11_01 e01_02" />
    </vehicle>
    <vehicle id="v_9" type="car" depart="206.8" departSpeed="max" departLane="best">
        <route edges="e01_11 e11_21 e21_11 e11_10 e10_00 e00_10 e10_20" />
    </vehicle>
    <vehicle id="v_58" type="car" depart="211.4" departSpeed="max" departLane="best">
        <route edges="e00_10 e10_20 e20_30 e30_31 e31_21 e21_22 e22_12" />
    </vehicle>
    <vehicle id="v_45" type="fast_car" depart="212.2" departSpeed="max" departLane="best">
        <route edges="e30_20 e20_30 e30_31 e31_30 e30_31 e31_21 e21_11 e11_21 e21_20 e20_10 e10_11 e11_01 e01_00 e00_10 e10_20" />
    </vehicle>
    <vehicle id="v_61" type="car" depart="214.9" departSpeed="max" departLane="best">
        <route edges="e10_11 e11_12 e12_13 e13_23 e23_22 e22_12 e12_11 e11_21 e21_11 e11_01 e01_00 e00_10 e10_20 e20_10" />
    </vehicle>
    <vehicle id="v_62" type="fast_car" depart="218.7" departSpeed="max" departLane="best">
        <route edges="e23_13 e13_12 e12_02 e02_01 e01_02 e02_12 e12_22 e22_12 e12_11 e11_12 e12_13 e13_23" />
    </vehicle>
    <vehicle id="v_201" type="fast_car" depart="224.6" departSpeed="max" departLane="best">
        <route edges="e23_22 e22_32 e32_33 e33_32 e32_31 e31_21 e21_20 e20_10" />
    </vehicle>
    <vehicle id="v_113" type="car" depart="225.5" departSpeed="max" departLane="best">
        <route edges="e22_21 e21_11 e11_12 e12_13 e13_12 e12_11 e11_21 e21_20 e20_21 e21_22 e22_12 e12_22 e22_23 e23_13 e13_03" />
    </vehicle>
    <vehicle id="v_142" type="car" depart="225.6" departSpeed="max" departLane="best">
        <route edges="e12_22 e22_32 e32_33 e33_23 e23_22 e22_23 e23_13 e13_12 e12_02 e02_03 e03_02 e02_01 e01_02 e02_12" />
    </vehicle>
    <vehicle id="v_167" type="fast_car" depart="229.4" departSpeed="max" departLane="best">
        <route edges="e21_31 e31_32 e32_33 e33_23 e23_22 e22_12 e12_22 e22_21 e21_20 e20_21 e21_11 e11_12 e12_11 e11_10" />
    </vehicle>
    <vehicle id="v_3" type="car" depart="230.8" departSpeed="max" departLane="best">
        <route edges="e21_22 e22_32 e32_22 e22_12 e12_22 e22_21 e21_31 e31_21 e21_20" />
    </vehicle>
    <vehicle id="v_205" type="fast_car" depart="243.9" departSpeed="max" departLane="best">
        <route edges="e21_22 e22_21 e21_31 e31_30 e30_20 e20_30 e30_31" />
    </vehicle>
    <vehicle id="v_6" type="fast_car" depart="244.7" departSpeed="max" departLane="best">
        <route edges="e01_11 e11_10 e10_11 e11_21 e21_22 e22_32 e32_31" />
    </vehicle>
    <vehicle id="v_192" type="fast_car" depart="245.3" departSpeed="max" departLane="best">
        <route edges="e03_13 e13_23 e23_22 e22_21 e21_22 e22_23" />
    </vehicle>
    <vehicle id="v_51" type="fast_car" depart="246.6" departSpeed="max" departLane="best">
        <route edges="e22_23 e23_22 e22_32 e32_22 e22_21 e21_22" />
    </vehicle>
    <vehicle id="v_104" type="car" depart="260.5" departSpeed="max" departLane="best">
        <route edges="e23_33 e33_23 e23_13 e13_12 e12_11 e11_12 e12_22 e22_21 e21_31 e31_30 e30_20" />
    </vehicle>
    <vehicle id="v_77" type="fast_car" depart="266.1" departSpeed="max" departLane="best">
        <route edges="e12_02 e02_12 e12_11 e11_12 e12_22 e22_23" />
    </vehicle>
    <vehicle id="v_170" type="car" depart="273.4" departSpeed="max" departLane="best">
        <route edges="e12_11 e11_10 e10_00 e00_01 e01_11 e11_01 e01_02 e02_01 e01_00 e00_10 e10_20 e20_21 e21_22 e22_21 e21_11" />
    </vehicle>
    <vehicle id="v_16" type="fast_car" depart="273.9" departSpeed="max" departLane="best">
        <route edges="e03_13 e13_12 e12_11 e11_21 e21_11 e11_01 e01_02 e02_01 e01_00 e00_01 e01_11 e11_10 e10_11" />
    </vehicle>
    <vehicle id="v_69" type="car" depart="274.7" departSpeed="max" departLane="best">
        <route edges="e22_32 e32_33 e33_23 e23_22 e22_12 e12_02 e02_03 e03_13 e13_23 e23_13 e13_03 e03_02" />
    </vehicle>
    <vehicle id="v_34" type="car" depart="275.0" departSpeed="max" departLane="best">
        <route edges="e03_13 e13_03 e03_02 e02_12 e12_02" />
    </vehicle>
    <vehicle id="v_48" type="fast_car" depart="280.9" departSpeed="max" departLane="best">
        <route edges="e32_33 e33_32 e32_31 e31_32 e32_22 e22_32 e32_22 e22_21 e21_22 e22_23 e23_13 e13_12 e12_11 e11_12 e12_02" />
    </vehicle>
    <vehicle id="v_70" type="fast_car" depart="281.7" departSpeed="max" departLane="best">
        <route edges="e00_10 e10_11 e11_01 e01_11 e11_10 e10_00 e00_01" />
    </vehicle>
    <vehicle id="v_73" type="fast_car" depart="285.4" departSpeed="max" departLane="best">
        <route edges="e31_21 e21_20 e20_30 e30_20 e20_10 e10_20 e20_21 e21_22 e22_21" />
    </vehicle>
    <vehicle id="v_144" type="car" depart="287.0" departSpeed="max" departLane="best">
        <route edges="e11_10 e10_00 e00_01 e01_02 e02_12 e12_22 e22_12 e12_02 e02_01 e01_11 e11_21" />
    </vehicle>
    <vehicle id="v_44" type="fast_car" depart="287.7" departSpeed="max" departLane="best">
        <route edges="e12_13 e13_23 e23_33 e33_32 e32_22 e22_12 e12_02 e02_12 e12_22 e22_23" />
    </vehicle>
    <vehicle id="v_42" type="car" depart="290.2" departSpeed="max" departLane="best">
        <route edges="e02_01 e01_02 e02_03 e03_02 e02_12 e12_11 e11_10 e10_00 e00_10 e10_20" />
    </vehicle>
    <vehicle id="v_204" type="car" depart="293.0" departSpeed="max" departLane="best">
        <route edges="e30_20 e20_30 e30_31 e31_32 e32_33 e33_32 e32_31 e31_21 e21_31 e31_30 e30_31 e31_32" />
    </vehicle>
    <vehicle id="v_33" type="fast_car" depart="293.2" departSpeed="max" departLane="best">
        <route edges="e00_01 e01_00 e00_10 e10_20 e20_10" />
    </vehicle>
    <vehicle id="v_30" type="fast_car" depart="295.8" departSpeed="max" departLane="best">
        <route edges="e32_31 e31_32 e32_33 e33_32 e32_22 e22_12 e12_11" />
    </vehicle>
    <vehicle id="v_17" type="car" depart="298.2" departSpeed="max" departLane="best">
        <route edges="e32_33 e33_32 e32_31 e31_21 e21_22 e22_23 e23_33 e33_23 e23_22 e22_21 e21_11 e11_21 e21_31" />
    </vehicle>
    <vehicle id="v_28" type="car" depart="301.7" departSpeed="max" departLane="best">
        <route edges="e11_10 e10_20 e20_30 e30_20" />
    </vehicle>
    <vehicle id="v_94" type="car" depart="304.1" departSpeed="max" departLane="best">
        <route edges="e12_02 e02_03 e03_13 e13_03 e03_02" />
    </vehicle>
    <vehicle id="v_198" type="fast_car" depart="306.4" departSpeed="max" departLane="best">
        <route edges="e22_23 e23_22 e22_12 e12_11 e11_01 e01_02 e02_03 e03_13 e13_23" />
    </vehicle>
    <vehicle id="v_78" type="car" depart="309.3" departSpeed="max" departLane="best">
        <route edges="e00_01 e01_11 e11_12 e12_11 e11_10 e10_20 e20_21 e21_11 e11_01 e01_00 e00_10 e10_11" />
    </vehicle>
    <vehicle id="v_2" type="fast_car" depart="312.5" departSpeed="max" departLane="best">
        <route edges="e00_10 e10_11 e11_12 e12_02 e02_03 e03_02 e02_12 e12_13 e13_03" />
    </vehicle>
    <vehicle id="v_184" type="fast_car" depart="312.9" departSpeed="max" departLane="best">
        <route edges="e23_22 e22_12 e12_22 e22_23 e23_13 e13_12" />
    </vehicle>
    <vehicle id="v_37" type="car" depart="321.9" departSpeed="max" departLane="best">
        <route edges="e10_00 e00_10 e10_20 e20_10 e10_11 e11_21 e21_11" />
    </vehicle>
    <vehicle id="v_117" type="car" depart="322.3" departSpeed="max" departLane="best">
        <route edges="e01_02 e02_03 e03_13 e13_12 e12_02 e02_01 e01_00 e00_01 e01_11 e11_21 e21_11 e11_01 e01_11 e11_12 e12_22" />
    </vehicle>
    <vehicle id="v_122" type="fast_car" depart="326.4" departSpeed="max" departLane="best">
        <route edges="e02_01 e01_00 e00_01 e01_11 e11_01 e01_02 e02_12 e12_22 e22_21 e21_20 e20_30 e30_31 e31_30 e30_20" />
    </vehicle>
    <vehicle id="v_89" type="car" depart="328.4" departSpeed="max" departLane="best">
        <route edges="e03_13 e13_12 e12_22 e22_23 e23_22 e22_12 e12_11 e11_12" />
    </vehicle>
    <vehicle id="v_32" type="car" depart="328.8" departSpeed="max" departLane="best">
        <route edges="e21_11 e11_01 e01_11 e11_21 e21_31 e31_32 e32_31 e31_21 e21_22 e22_23 e23_22 e22_21 e21_20 e20_10" />
    </vehicle>
    <vehicle id="v_150" type="car" depart="331.8" departSpeed="max" departLane="best">
        <route edges="e21_31 e31_21 e21_20 e20_30 e30_31 e31_30 e30_20 e20_21 e21_11 e11_12 e12_22 e22_32 e32_22 e22_12" />
    </vehicle>
    <vehicle id="v_128" type="car" depart="332.6" departSpeed="max" departLane="best">
        <route edges="e32_22 e22_21 e21_31 e31_30 e30_20" />
    </vehicle>
    <vehicle id="v_72" type="fast_car" depart="333.6" departSpeed="max" departLane="best">
        <route edges="e33_23 e23_22 e22_32 e32_33 e33_32 e32_31 e31_21" />
    </vehicle>
    <vehicle id="v_177" type="fast_car" depart="333.9" departSpeed="max" departLane="best">
        <route edges="e02_03 e03_13 e13_23 e23_33 e33_32" />
    </vehicle>
    <vehicle id="v_57" type="car" depart="339.6" departSpeed="max" departLane="best">
        <route edges="e00_01 e01_00 e00_10 e10_20 e20_10 e10_11 e11_21" />
    </vehicle>
    <vehicle id="v_153" type="car" depart="339.6" departSpeed="max" departLane="best">
        <route edges="e01_02 e02_01 e01_11 e11_10 e10_20 e20_30 e30_31 e31_30 e30_20 e20_10 e10_00 e00_01" />
    </vehicle>
    <vehicle id="v_79" type="fast_car" depart="343.6" departSpeed="max" departLane="best">
        <route edges="e00_01 e01_00 e00_10 e10_00 e00_10 e10_11 e11_10 e10_20 e20_21 e21_20" />
    </vehicle>
    <vehicle id="v_207" type="fast_car" depart="343.8" departSpeed="max" departLane="best">
        <route edges="e31_21 e21_11 e11_10 e10_20 e20_10 e10_11 e11_01 e01_11 e11_12" />
    </vehicle>
    <vehicle id="v_55" type="car" depart="344.2" departSpeed="max" departLane="best">
        <route edges="e01_00 e00_10 e10_00 e00_01 e01_02 e02_12 e12_13 e13_03 e03_13 e13_12" />
    </vehicle>
    <vehicle id="v_156" type="fast_car" depart="344.3" departSpeed="max" departLane="best">
        <route edges="e22_32 e32_33 e33_23 e23_22 e22_23 e23_33 e33_32" />
    </vehicle>
    <vehicle id="v_168" type="car" depart="357.7" departSpeed="max" departLane="best">
        <route edges="e12_22 e22_23 e23_13 e13_12 e12_02 e02_03 e03_13 e13_03 e03_02 e02_01 e01_11 e11_12" />
    </vehicle>
    <vehicle id="v_102" type="fast_car" depart="357.9" departSpeed="max" departLane="best">
        <route edges="e12_22 e22_12 e12_13 e13_23 e23_33 e33_23 e23_22 e22_21 e21_11 e11_01 e01_02 e02_12 e12_11 e11_12" />
    </vehicle>
    <vehicle id="v_35" type="fast_car" depart="360.8" departSpeed="max" departLane="best">
        <route edges="e00_01 e01_11 e11_01 e01_02 e02_03 e03_13 e13_23 e23_13 e13_03 e03_02 e02_12" />
    </vehicle>
    <vehicle id="v_1" type="car" depart="362.1" departSpeed="max" departLane="best">
        <route edges="e23_22 e22_23 e23_33 e33_23 e23_13 e13_12 e12_11 e11_21 e21_20 e20_21" />
    </vehicle>
    <vehicle id="v_56" type="car" depart="362.2" departSpeed="max" departLane="best">
        <route edges="e10_20 e20_30 e30_20 e20_10 e10_00 e00_01 e01_11" />
    </vehicle>
    <vehicle id="v_107" type="fast_car" depart="370.6" departSpeed="max" departLane="best">
        <route edges="e10_00 e00_01 e01_00 e00_10 e10_20 e20_30 e30_31 e31_21" />
    </vehicle>
    <vehicle id="v_152" type="fast_car" depart="371.1" departSpeed="max" departLane="best">
        <route edges="e02_12 e12_02 e02_01 e01_00 e00_10 e10_11 e11_10 e10_00 e00_01" />
    </vehicle>
    <vehicle id="v_169" type="fast_car" depart="373.6" departSpeed="max" departLane="best">
        <route edges="e30_31 e31_21 e21_31 e31_32 e32_22 e22_23 e23_22 e22_32 e32_31 e31_30 e30_20 e20_10" />
    </vehicle>
    <vehicle id="v_5" type="car" depart="374.2" departSpeed="max" departLane="best">
        <route edges="e20_10 e10_11 e11_12 e12_22 e22_32 e32_22 e22_23 e23_22 e22_21 e21_20 e20_30 e30_31 e31_32" />
    </vehicle>
    <vehicle id="v_86" type="fast_car" depart="375.0" departSpeed="max" departLane="best">
        <route edges="e10_20 e20_30 e30_31 e31_30 e30_20 e20_10 e10_00" />
    </vehicle>
    <vehicle id="v_7" type="fast_car" depart="376.4" departSpeed="max" departLane="best">
        <route edges="e31_30 e30_31 e31_21 e21_31 e31_32 e32_31 e31_30 e30_20 e20_21 e21_11 e11_10 e10_20 e20_30" />
    </vehicle>
    <vehicle id="v_179" type="car" depart="380.3" departSpeed="max" departLane="best">
        <route edges="e23_33 e33_32 e32_33 e33_23 e23_13 e13_03 e03_13 e13_12 e12_22" />
    </vehicle>
    <vehicle id="v_18" type="fast_car" depart="380.4" departSpeed="max" departLane="best">
        <route edges="e23_33 e33_32 e32_31 e31_30" />
    </vehicle>
    <vehicle id="v_65" type="fast_car" depart="385.0" departSpeed="max" departLane="best">
        <route edges="e22_23 e23_13 e13_03 e03_13 e13_23" />
    </vehicle>
    <vehicle id="v_54" type="car" depart="403.6" departSpeed="max" departLane="best">
        <route edges="e20_30 e30_31 e31_30 e30_20 e20_10 e10_20 e20_21 e21_22" />
    </vehicle>
    <vehicle id="v_203" type="fast_car" depart="407.1" departSpeed="max" departLane="best">
        <route edges="e23_13 e13_03 e03_02 e02_01 e01_11 e11_12 e12_22 e22_12 e12_02 e02_12 e12_11 e11_21 e21_31" />
    </vehicle>
    <vehicle id="v_191" type="fast_car" depart="407.6" departSpeed="max" departLane="best">
        <route edges="e30_20 e20_21 e21_20 e20_10 e10_20" />
    </vehicle>
    <vehicle id="v_131" type="fast_car" depart="407.9" departSpeed="max" departLane="best">
        <route edges="e12_11 e11_01 e01_02 e02_12 e12_22 e22_12 e12_02 e02_01 e01_11 e11_21 e21_11 e11_10 e10_20 e20_21" />
    </vehicle>
    <vehicle id="v_25" type="car" depart="408.5" departSpeed="max" departLane="best">
        <route edges="e03_02 e02_03 e03_13 e13_23 e23_13 e13_12 e12_13 e13_03 e03_13 e13_12 e12_22" />
    </vehicle>
    <vehicle id="v_196" type="car" depart="411.8" departSpeed="max" departLane="best">
        <route edges="e02_03 e03_13 e13_03 e03_02 e02_12 e12_22 e22_12" />
    </vehicle>
    <vehicle id="v_195" type="fast_car" depart="416.2" departSpeed="max" departLane="best">
        <route edges="e31_30 e30_31 e31_32 e32_33 e33_23 e23_13 e13_12 e12_11 e11_12" />
    </vehicle>
    <vehicle id="v_22" type="car" depart="420.9" departSpeed="max" departLane="best">
        <route edges="e01_00 e00_01 e01_02 e02_01 e01_11 e11_01 e01_00 e00_10 e10_20 e20_21 e21_22 e22_12 e12_11 e11_10 e10_11" />
    </vehicle>
    <vehicle id="v_174" type="car" depart="422.2" departSpeed="max" departLane="best">
        <route edges="e03_02 e02_03 e03_13 e13_03 e03_13 e13_12 e12_22 e22_32 e32_22 e22_21 e21_31 e31_30" />
    </vehicle>
    <vehicle id="v_105" type="fast_car" depart="422.9" departSpeed="max" departLane="best">
        <route edges="e00_01 e01_02 e02_12 e12_13 e13_12 e12_22 e22_32 e32_31 e31_30 e30_31 e31_21 e21_20 e20_30 e30_20 e20_10" />
    </vehicle>
    <vehicle id="v_173" type="fast_car" depart="424.2" departSpeed="max" departLane="best">
        <route edges="e31_32 e32_33 e33_32 e32_22" />
    </vehicle>
    <vehicle id="v_11" type="car" depart="424.3" departSpeed="max" departLane="best">
        <route edges="e13_03 e03_02 e02_01 e01_02 e02_12 e12_13 e13_12 e12_11 e11_21 e21_31" />
    </vehicle>
    <vehicle id="v_187" type="car" depart="424.8" departSpeed="max" departLane="best">
        <route edges="e03_02 e02_12 e12_02 e02_03 e03_13 e13_23 e23_33 e33_23 e23_13 e13_03" />
    </vehicle>
    <vehicle id="v_12" type="car" depart="426.8" departSpeed="max" departLane="best">
        <route edges="e03_13 e13_03 e03_02 e02_12 e12_02" />
    </vehicle>
    <vehicle id="v_148" type="car" depart="432.9" departSpeed="max" departLane="best">
        <route edges="e10_20 e20_10 e10_11 e11_12 e12_13 e13_12 e12_22 e22_12" />
    </vehicle>
    <vehicle id="v_81" type="car" depart="433.2" departSpeed="max" departLane="best">
        <route edges="e22_21 e21_20 e20_21 e21_22 e22_23 e23_13 e13_03 e03_13 e13_12 e12_13 e13_23 e23_22" />